feeders/1_MIRA_1/007_transformadores.dss
New Transformer.TRF_12_1013A phases=1 windings=3 buses=[MRT_24371TRF_12_1013A.2 ET12_1013.1.4 ET12_1013.4.2] conns=[Wye Wye Wye] kvs=[13.3367912182804 0.22 0.22] kvas=[15 15 15] %loadloss=1.766667 %noloadloss=0.433333
New Linecode.LC_MRT_TRF_12_1013A_1 nphases=1 basefreq=60 r1=15000 x1=0 units=km normamps=0
New Linecode.LC_MRT_TRF_12_1013A_2 nphases=2 basefreq=60 r1=15000 x1=0 units=km normamps=0
New Linecode.LC_MRT_TRF_12_1013A_3 nphases=3 basefreq=60 r1=15000 x1=0 units=km normamps=0
New Linecode.LC_MRT_TRF_12_1013A_4 nphases=4 basefreq=60 r1=15000 x1=0 units=km normamps=0
New Line.Resist_MTR_TRF_12_1013A phases=1 bus1=24371.2 bus2= MRT_24371TRF_12_1013A.2 linecode=LC_MRT_TRF_12_1013A_1 length=0.001 units=km
New Reactor.TRF_12_1013A_R phases=1 bus1=ET12_1013.4 R=15 X=0 basefreq=60
New Transformer.TRF_12_1014A phases=1 windings=3 buses=[MRT_24121TRF_12_1014A.2 ET12_1014.1.4 ET12_1014.4.2] conns=[Wye Wye Wye] kvs=[13.3367912182804 0.22 0.22] kvas=[15 15 15] %loadloss=1.766667 %noloadloss=0.433333
New Linecode.LC_MRT_TRF_12_1014A_1 nphases=1 basefreq=60 r1=15000 x1=0 units=km normamps=0
New Linecode.LC_MRT_TRF_12_1014A_2 nphases=2 basefreq=60 r1=15000 x1=0 units=km normamps=0
New Linecode.LC_MRT_TRF_12_1014A_3 nphases=3 basefreq=60 r1=15000 x1=0 units=km normamps=0
New Linecode.LC_MRT_TRF_12_1014A_4 nphases=4 basefreq=60 r1=15000 x1=0 units=km normamps=0
New Line.Resist_MTR_TRF_12_1014A phases=1 bus1=24121.2 bus2= MRT_24121TRF_12_1014A.2 linecode=LC_MRT_TRF_12_1014A_1 length=0.001 units=km
New Reactor.TRF_12_1014A_R phases=1 bus1=ET12_1014.4 R=15 X=0 basefreq=60
New Transformer.TRF_12_1015A phases=1 windings=3 buses=[MRT_24061TRF_12_1015A.2 ET12_1015.1.4 ET12_1015.4.2] conns=[Wye Wye Wye] kvs=[13.3367912182804 0.22 0.22] kvas=[25 25 25] %loadloss=1.56 %noloadloss=0.36
New Linecode.LC_MRT_TRF_12_1015A_1 nphases=1 basefreq=60 r1=15000 x1=0 units=km normamps=0
New Linecode.LC_MRT_TRF_12_1015A_2 nphases=2 basefreq=60 r1=15000 x1=0 units=km normamps=0
New Linecode.LC_MRT_TRF_12_1015A_3 nphases=3 basefreq=60 r1=15000 x1=0 units=km normamps=0
New Linecode.LC_MRT_TRF_12_1015A_4 nphases=4 basefreq=60 r1=15000 x1=0 units=km normamps=0
New Line.Resist_MTR_TRF_12_1015A phases=1 bus1=24061.2 bus2= MRT_24061TRF_12_1015A.2 linecode=LC_MRT_TRF_12_1015A_1 length=0.001 units=km
New Reactor.TRF_12_1015A_R phases=1 bus1=ET12_1015.4 R=15 X=0 basefreq=60
New Transformer.TRF_12_1016A phases=1 windings=3 buses=[MRT_42041TRF_12_1016A.2 ET12_1016.1.4 ET12_1016.4.2] conns=[Wye Wye Wye] kvs=[13.3367912182804 0.22 0.22] kvas=[15 15 15] %loadloss=1.766667 %noloadloss=0.433333
New Linecode.LC_MRT_TRF_12_1016A_1 nphases=1 basefreq=60 r1=15000 x1=0 units=km normamps=0
New Linecode.LC_MRT_TRF_12_1016A_2 nphases=2 basefreq=60 r1=15000 x1=0 units=km normamps=0
New Linecode.LC_MRT_TRF_12_1016A_3 nphases=3 basefreq=60 r1=15000 x1=0 units=km normamps=0
New Linecode.LC_MRT_TRF_12_1016A_4 nphases=4 basefreq=60 r1=15000 x1=0 units=km normamps=0
New Line.Resist_MTR_TRF_12_1016A phases=1 bus1=42041.2 bus2= MRT_42041TRF_12_1016A.2 linecode=LC_MRT_TRF_12_1016A_1 length=0.001 units=km
New Reactor.TRF_12_1016A_R phases=1 bus1=ET12_1016.4 R=15 X=0 basefreq=60
New Transformer.TRF_12_1017A phases=1 windings=3 buses=[MRT_58821TRF_12_1017A.1 ET12_1017.1.4 ET12_1017.4.2] conns=[Wye Wye Wye] kvs=[13.3367912182804 0.22 0.22] kvas=[10 10 10] %loadloss=1.95 %noloadloss=0.5
New Linecode.LC_MRT_TRF_12_1017A_1 nphases=1 basefreq=60 r1=15000 x1=0 units=km normamps=0
New Linecode.LC_MRT_TRF_12_1017A_2 nphases=2 basefreq=60 r1=15000 x1=0 units=km normamps=0
New Linecode.LC_MRT_TRF_12_1017A_3 nphases=3 basefreq=60 r1=15000 x1=0 units=km normamps=0
New Linecode.LC_MRT_TRF_12_1017A_4 nphases=4 basefreq=60 r1=15000 x1=0 units=km normamps=0
New Line.Resist_MTR_TRF_12_1017A phases=1 bus1=58821.1 bus2= MRT_58821TRF_12_1017A.1 linecode=LC_MRT_TRF_12_1017A_1 length=0.001 units=km
New Reactor.TRF_12_1017A_R phases=1 bus1=ET12_1017.4 R=15 X=0 basefreq=60
New Transformer.TRF_12_1027A phases=1 windings=3 buses=[MRT_42211TRF_12_1027A.2 ET12_1027.1.4 ET12_1027.4.2] conns=[Wye Wye Wye] kvs=[13.3367912182804 0.22 0.22] kvas=[15 15 15] %loadloss=1.766667 %noloadloss=0.433333
New Linecode.LC_MRT_TRF_12_1027A_1 nphases=1 basefreq=60 r1=15000 x1=0 units=km normamps=0
New Linecode.LC_MRT_TRF_12_1027A_2 nphases=2 basefreq=60 r1=15000 x1=0 units=km normamps=0
New Linecode.LC_MRT_TRF_12_1027A_3 nphases=3 basefreq=60 r1=15000 x1=0 units=km normamps=0
New Linecode.LC_MRT_TRF_12_1027A_4 nphases=4 basefreq=60 r1=15000 x1=0 units=km normamps=0
New Line.Resist_MTR_TRF_12_1027A phases=1 bus1=42211.2 bus2= MRT_42211TRF_12_1027A.2 linecode=LC_MRT_TRF_12_1027A_1 length=0.001 units=km
New Reactor.TRF_12_1027A_R phases=1 bus1=ET12_1027.4 R=15 X=0 basefreq=60
New Transformer.TRF_12_1122A phases=1 windings=3 buses=[MRT_57761TRF_12_1122A.3 ET12_1122.1.4 ET12_1122.4.2] conns=[Wye Wye Wye] kvs=[13.3367912182804 0.22 0.22] kvas=[15 15 15] %loadloss=1.766667 %noloadloss=0.433333
New Linecode.LC_MRT_TRF_12_1122A_1 nphases=1 basefreq=60 r1=15000 x1=0 units=km normamps=0
New Linecode.LC_MRT_TRF_12_1122A_2 nphases=2 basefreq=60 r1=15000 x1=0 units=km normamps=0
New Linecode.LC_MRT_TRF_12_1122A_3 nphases=3 basefreq=60 r1=15000 x1=0 units=km normamps=0
New Linecode.LC_MRT_TRF_12_1122A_4 nphases=4 basefreq=60 r1=15000 x1=0 units=km normamps=0
New Line.Resist_MTR_TRF_12_1122A phases=1 bus1=57761.3 bus2= MRT_57761TRF_12_1122A.3 linecode=LC_MRT_TRF_12_1122A_1 length=0.001 units=km
New Reactor.TRF_12_1122A_R phases=1 bus1=ET12_1122.4 R=15 X=0 basefreq=60
New Transformer.TRF_12_1123A phases=1 windings=3 buses=[MRT_61661TRF_12_1123A.3 ET12_1123.1.4 ET12_1123.4.2] conns=[Wye Wye Wye] kvs=[13.3367912182804 0.22 0.22] kvas=[15 15 15] %loadloss=1.766667 %noloadloss=0.433333
New Linecode.LC_MRT_TRF_12_1123A_1 nphases=1 basefreq=60 r1=15000 x1=0 units=km normamps=0
New Linecode.LC_MRT_TRF_12_1123A_2 nphases=2 basefreq=60 r1=15000 x1=0 units=km normamps=0
New Linecode.LC_MRT_TRF_12_1123A_3 nphases=3 basefreq=60 r1=15000 x1=0 units=km normamps=0
New Linecode.LC_MRT_TRF_12_1123A_4 nphases=4 basefreq=60 r1=15000 x1=0 units=km normamps=0
New Line.Resist_MTR_TRF_12_1123A phases=1 bus1=61661.3 bus2= MRT_61661TRF_12_1123A.3 linecode=LC_MRT_TRF_12_1123A_1 length=0.001 units=km
New Reactor.TRF_12_1123A_R phases=1 bus1=ET12_1123.4 R=15 X=0 basefreq=60
New Transformer.TRF_12_1124A phases=1 windings=3 buses=[MRT_8031TRF_12_1124A.3 ET12_1124.1.4 ET12_1124.4.2] conns=[Wye Wye Wye] kvs=[13.3367912182804 0.22 0.22] kvas=[15 15 15] %loadloss=1.766667 %noloadloss=0.433333
New Linecode.LC_MRT_TRF_12_1124A_1 nphases=1 basefreq=60 r1=15000 x1=0 units=km normamps=0
New Linecode.LC_MRT_TRF_12_1124A_2 nphases=2 basefreq=60 r1=15000 x1=0 units=km normamps=0
New Linecode.LC_MRT_TRF_12_1124A_3 nphases=3 basefreq=60 r1=15000 x1=0 units=km normamps=0
New Linecode.LC_MRT_TRF_12_1124A_4 nphases=4 basefreq=60 r1=15000 x1=0 units=km normamps=0
New Line.Resist_MTR_TRF_12_1124A phases=1 bus1=8031.3 bus2= MRT_8031TRF_12_1124A.3 linecode=LC_MRT_TRF_12_1124A_1 length=0.001 units=km
New Reactor.TRF_12_1124A_R phases=1 bus1=ET12_1124.4 R=15 X=0 basefreq=60
New Transformer.TRF_12_1125A phases=1 windings=3 buses=[MRT_3851TRF_12_1125A.3 ET12_1125.1.4 ET12_1125.4.2] conns=[Wye Wye Wye] kvs=[13.3367912182804 0.22 0.22] kvas=[25 25 25] %loadloss=1.56 %noloadloss=0.36
New Linecode.LC_MRT_TRF_12_1125A_1 nphases=1 basefreq=60 r1=15000 x1=0 units=km normamps=0
New Linecode.LC_MRT_TRF_12_1125A_2 nphases=2 basefreq=60 r1=15000 x1=0 units=km normamps=0
New Linecode.LC_MRT_TRF_12_1125A_3 nphases=3 basefreq=60 r1=15000 x1=0 units=km normamps=0
New Linecode.LC_MRT_TRF_12_1125A_4 nphases=4 basefreq=60 r1=15000 x1=0 units=km normamps=0
New Line.Resist_MTR_TRF_12_1125A phases=1 bus1=3851.3 bus2= MRT_3851TRF_12_1125A.3 linecode=LC_MRT_TRF_12_1125A_1 length=0.001 units=km
New Reactor.TRF_12_1125A_R phases=1 bus1=ET12_1125.4 R=15 X=0 basefreq=60
New Transformer.TRF_12_1126A phases=1 windings=3 buses=[MRT_63921TRF_12_1126A.3 ET12_1126.1.4 ET12_1126.4.2] conns=[Wye Wye Wye] kvs=[13.3367912182804 0.22 0.22] kvas=[15 15 15] %loadloss=1.766667 %noloadloss=0.433333
New Linecode.LC_MRT_TRF_12_1126A_1 nphases=1 basefreq=60 r1=15000 x1=0 units=km normamps=0
New Linecode.LC_MRT_TRF_12_1126A_2 nphases=2 basefreq=60 r1=15000 x1=0 units=km normamps=0
New Linecode.LC_MRT_TRF_12_1126A_3 nphases=3 basefreq=60 r1=15000 x1=0 units=km normamps=0
New Linecode.LC_MRT_TRF_12_1126A_4 nphases=4 basefreq=60 r1=15000 x1=0 units=km normamps=0
New Line.Resist_MTR_TRF_12_1126A phases=1 bus1=63921.3 bus2= MRT_63921TRF_12_1126A.3 linecode=LC_MRT_TRF_12_1126A_1 length=0.001 units=km
New Reactor.TRF_12_1126A_R phases=1 bus1=ET12_1126.4 R=15 X=0 basefreq=60
New Transformer.TRF_12_1127A phases=1 windings=3 buses=[MRT_45811TRF_12_1127A.2 ET12_1127.1.4 ET12_1127.4.2] conns=[Wye Wye Wye] kvs=[13.3367912182804 0.22 0.22] kvas=[10 10 10] %loadloss=1.95 %noloadloss=0.5
New Linecode.LC_MRT_TRF_12_1127A_1 nphases=1 basefreq=60 r1=15000 x1=0 units=km normamps=0
New Linecode.LC_MRT_TRF_12_1127A_2 nphases=2 basefreq=60 r1=15000 x1=0 units=km normamps=0
New Linecode.LC_MRT_TRF_12_1127A_3 nphases=3 basefreq=60 r1=15000 x1=0 units=km normamps=0
New Linecode.LC_MRT_TRF_12_1127A_4 nphases=4 basefreq=60 r1=15000 x1=0 units=km normamps=0
New Line.Resist_MTR_TRF_12_1127A phases=1 bus1=45811.2 bus2= MRT_45811TRF_12_1127A.2 linecode=LC_MRT_TRF_12_1127A_1 length=0.001 units=km
New Reactor.TRF_12_1127A_R phases=1 bus1=ET12_1127.4 R=15 X=0 basefreq=60
New Transformer.TRF_12_1134A phases=1 windings=3 buses=[MRT_64071TRF_12_1134A.2 ET12_1134.1.4 ET12_1134.4.2] conns=[Wye Wye Wye] kvs=[13.3367912182804 0.22 0.22] kvas=[15 15 15] %loadloss=1.766667 %noloadloss=0.433333
New Linecode.LC_MRT_TRF_12_1134A_1 nphases=1 basefreq=60 r1=15000 x1=0 units=km normamps=0
New Linecode.LC_MRT_TRF_12_1134A_2 nphases=2 basefreq=60 r1=15000 x1=0 units=km normamps=0
New Linecode.LC_MRT_TRF_12_1134A_3 nphases=3 basefreq=60 r1=15000 x1=0 units=km normamps=0
New Linecode.LC_MRT_TRF_12_1134A_4 nphases=4 basefreq=60 r1=15000 x1=0 units=km normamps=0
New Line.Resist_MTR_TRF_12_1134A phases=1 bus1=64071.2 bus2= MRT_64071TRF_12_1134A.2 linecode=LC_MRT_TRF_12_1134A_1 length=0.001 units=km
New Reactor.TRF_12_1134A_R phases=1 bus1=ET12_1134.4 R=15 X=0 basefreq=60
New Transformer.TRF_12_1135A phases=1 windings=3 buses=[MRT_14831TRF_12_1135A.3 ET12_1135.1.4 ET12_1135.4.2] conns=[Wye Wye Wye] kvs=[13.3367912182804 0.22 0.22] kvas=[10 10 10] %loadloss=1.95 %noloadloss=0.5
New Linecode.LC_MRT_TRF_12_1135A_1 nphases=1 basefreq=60 r1=15000 x1=0 units=km normamps=0
New Linecode.LC_MRT_TRF_12_1135A_2 nphases=2 basefreq=60 r1=15000 x1=0 units=km normamps=0
New Linecode.LC_MRT_TRF_12_1135A_3 nphases=3 basefreq=60 r1=15000 x1=0 units=km normamps=0
New Linecode.LC_MRT_TRF_12_1135A_4 nphases=4 basefreq=60 r1=15000 x1=0 units=km normamps=0
New Line.Resist_MTR_TRF_12_1135A phases=1 bus1=14831.3 bus2= MRT_14831TRF_12_1135A.3 linecode=LC_MRT_TRF_12_1135A_1 length=0.001 units=km
New Reactor.TRF_12_1135A_R phases=1 bus1=ET12_1135.4 R=15 X=0 basefreq=60
New Transformer.TRF_12_1426A phases=1 windings=3 buses=[MRT_54331TRF_12_1426A.2 ET12_1426.1.4 ET12_1426.4.2] conns=[Wye Wye Wye] kvs=[13.3367912182804 0.22 0.22] kvas=[10 10 10] %loadloss=1.95 %noloadloss=0.5
New Linecode.LC_MRT_TRF_12_1426A_1 nphases=1 basefreq=60 r1=15000 x1=0 units=km normamps=0
New Linecode.LC_MRT_TRF_12_1426A_2 nphases=2 basefreq=60 r1=15000 x1=0 units=km normamps=0
New Linecode.LC_MRT_TRF_12_1426A_3 nphases=3 basefreq=60 r1=15000 x1=0 units=km normamps=0
New Linecode.LC_MRT_TRF_12_1426A_4 nphases=4 basefreq=60 r1=15000 x1=0 units=km normamps=0
New Line.Resist_MTR_TRF_12_1426A phases=1 bus1=54331.2 bus2= MRT_54331TRF_12_1426A.2 linecode=LC_MRT_TRF_12_1426A_1 length=0.001 units=km
New Reactor.TRF_12_1426A_R phases=1 bus1=ET12_1426.4 R=15 X=0 basefreq=60
New Transformer.TRF_12_1427A phases=1 windings=3 buses=[MRT_75231TRF_12_1427A.2 ET12_1427.1.4 ET12_1427.4.2] conns=[Wye Wye Wye] kvs=[13.3367912182804 0.22 0.22] kvas=[10 10 10] %loadloss=1.95 %noloadloss=0.5
New Linecode.LC_MRT_TRF_12_1427A_1 nphases=1 basefreq=60 r1=15000 x1=0 units=km normamps=0
New Linecode.LC_MRT_TRF_12_1427A_2 nphases=2 basefreq=60 r1=15000 x1=0 units=km normamps=0
New Linecode.LC_MRT_TRF_12_1427A_3 nphases=3 basefreq=60 r1=15000 x1=0 units=km normamps=0
New Linecode.LC_MRT_TRF_12_1427A_4 nphases=4 basefreq=60 r1=15000 x1=0 units=km normamps=0
New Line.Resist_MTR_TRF_12_1427A phases=1 bus1=75231.2 bus2= MRT_75231TRF_12_1427A.2 linecode=LC_MRT_TRF_12_1427A_1 length=0.001 units=km
New Reactor.TRF_12_1427A_R phases=1 bus1=ET12_1427.4 R=15 X=0 basefreq=60
New Transformer.TRF_12_1698A phases=3 windings=2 buses=[342311.1.2.3 ET12_1698.1.2.3.4] conns=[Delta Wye] kvs=[23.1 0.38] kvas=[112.5 112.5] %loadloss=1.475556 %noloadloss=0.377777
New Reactor.TRF_12_1698A_R phases=1 bus1=ET12_1698.4 R=15 X=0 basefreq=60
New Transformer.TRF_12_1791A phases=1 windings=3 buses=[MRT_67151TRF_12_1791A.3 ET12_1791.1.4 ET12_1791.4.2] conns=[Wye Wye Wye] kvs=[13.3367912182804 0.22 0.22] kvas=[10 10 10] %loadloss=1.95 %noloadloss=0.5
New Linecode.LC_MRT_TRF_12_1791A_1 nphases=1 basefreq=60 r1=15000 x1=0 units=km normamps=0
New Linecode.LC_MRT_TRF_12_1791A_2 nphases=2 basefreq=60 r1=15000 x1=0 units=km normamps=0
New Linecode.LC_MRT_TRF_12_1791A_3 nphases=3 basefreq=60 r1=15000 x1=0 units=km normamps=0
New Linecode.LC_MRT_TRF_12_1791A_4 nphases=4 basefreq=60 r1=15000 x1=0 units=km normamps=0
New Line.Resist_MTR_TRF_12_1791A phases=1 bus1=67151.3 bus2= MRT_67151TRF_12_1791A.3 linecode=LC_MRT_TRF_12_1791A_1 length=0.001 units=km
New Reactor.TRF_12_1791A_R phases=1 bus1=ET12_1791.4 R=15 X=0 basefreq=60
New Transformer.TRF_12_1792A phases=1 windings=3 buses=[MRT_62531TRF_12_1792A.3 ET12_1792.1.4 ET12_1792.4.2] conns=[Wye Wye Wye] kvs=[13.3367912182804 0.22 0.22] kvas=[25 25 25] %loadloss=1.56 %noloadloss=0.36
New Linecode.LC_MRT_TRF_12_1792A_1 nphases=1 basefreq=60 r1=15000 x1=0 units=km normamps=0
New Linecode.LC_MRT_TRF_12_1792A_2 nphases=2 basefreq=60 r1=15000 x1=0 units=km normamps=0
New Linecode.LC_MRT_TRF_12_1792A_3 nphases=3 basefreq=60 r1=15000 x1=0 units=km normamps=0
New Linecode.LC_MRT_TRF_12_1792A_4 nphases=4 basefreq=60 r1=15000 x1=0 units=km normamps=0
New Line.Resist_MTR_TRF_12_1792A phases=1 bus1=62531.3 bus2= MRT_62531TRF_12_1792A.3 linecode=LC_MRT_TRF_12_1792A_1 length=0.001 units=km
New Reactor.TRF_12_1792A_R phases=1 bus1=ET12_1792.4 R=15 X=0 basefreq=60
New Transformer.TRF_12_1879A phases=1 windings=3 buses=[MRT_23141TRF_12_1879A.2 ET12_1879.1.4 ET12_1879.4.2] conns=[Wye Wye Wye] kvs=[13.3367912182804 0.22 0.22] kvas=[10 10 10] %loadloss=1.95 %noloadloss=0.5
New Linecode.LC_MRT_TRF_12_1879A_1 nphases=1 basefreq=60 r1=15000 x1=0 units=km normamps=0
New Linecode.LC_MRT_TRF_12_1879A_2 nphases=2 basefreq=60 r1=15000 x1=0 units=km normamps=0
New Linecode.LC_MRT_TRF_12_1879A_3 nphases=3 basefreq=60 r1=15000 x1=0 units=km normamps=0
New Linecode.LC_MRT_TRF_12_1879A_4 nphases=4 basefreq=60 r1=15000 x1=0 units=km normamps=0
New Line.Resist_MTR_TRF_12_1879A phases=1 bus1=23141.2 bus2= MRT_23141TRF_12_1879A.2 linecode=LC_MRT_TRF_12_1879A_1 length=0.001 units=km
New Reactor.TRF_12_1879A_R phases=1 bus1=ET12_1879.4 R=15 X=0 basefreq=60
New Transformer.TRF_12_2071A phases=3 windings=2 buses=[561.1.2.3 ET12_2071.1.2.3.4] conns=[Delta Wye] kvs=[23.1 0.38] kvas=[30 30] %loadloss=2.1 %noloadloss=0.533333
New Reactor.TRF_12_2071A_R phases=1 bus1=ET12_2071.4 R=15 X=0 basefreq=60
New Transformer.TRF_12_2095A phases=1 windings=3 buses=[MRT_311981TRF_12_2095A.2 ET12_2095.1.4 ET12_2095.4.2] conns=[Wye Wye Wye] kvs=[13.3367912182804 0.22 0.22] kvas=[15 15 15] %loadloss=1.766667 %noloadloss=0.433333
New Linecode.LC_MRT_TRF_12_2095A_1 nphases=1 basefreq=60 r1=15000 x1=0 units=km normamps=0
New Linecode.LC_MRT_TRF_12_2095A_2 nphases=2 basefreq=60 r1=15000 x1=0 units=km normamps=0
New Linecode.LC_MRT_TRF_12_2095A_3 nphases=3 basefreq=60 r1=15000 x1=0 units=km normamps=0
New Linecode.LC_MRT_TRF_12_2095A_4 nphases=4 basefreq=60 r1=15000 x1=0 units=km normamps=0
New Line.Resist_MTR_TRF_12_2095A phases=1 bus1=311981.2 bus2= MRT_311981TRF_12_2095A.2 linecode=LC_MRT_TRF_12_2095A_1 length=0.001 units=km
New Reactor.TRF_12_2095A_R phases=1 bus1=ET12_2095.4 R=15 X=0 basefreq=60
New Transformer.TRF_12_2110A phases=3 windings=2 buses=[310971.1.2.3 ET12_2110.1.2.3.4] conns=[Delta Wye] kvs=[23.1 0.38] kvas=[45 45] %loadloss=1.866667 %noloadloss=0.477777
New Reactor.TRF_12_2110A_R phases=1 bus1=ET12_2110.4 R=15 X=0 basefreq=60
New Transformer.TRF_12_2118A phases=1 windings=3 buses=[MRT_358881TRF_12_2118A.3 ET12_2118.1.4 ET12_2118.4.2] conns=[Wye Wye Wye] kvs=[13.3367912182804 0.22 0.22] kvas=[5 5 5] %loadloss=2.1 %noloadloss=0.7
New Linecode.LC_MRT_TRF_12_2118A_1 nphases=1 basefreq=60 r1=15000 x1=0 units=km normamps=0
New Linecode.LC_MRT_TRF_12_2118A_2 nphases=2 basefreq=60 r1=15000 x1=0 units=km normamps=0
New Linecode.LC_MRT_TRF_12_2118A_3 nphases=3 basefreq=60 r1=15000 x1=0 units=km normamps=0
New Linecode.LC_MRT_TRF_12_2118A_4 nphases=4 basefreq=60 r1=15000 x1=0 units=km normamps=0
New Line.Resist_MTR_TRF_12_2118A phases=1 bus1=358881.3 bus2= MRT_358881TRF_12_2118A.3 linecode=LC_MRT_TRF_12_2118A_1 length=0.001 units=km
New Reactor.TRF_12_2118A_R phases=1 bus1=ET12_2118.4 R=15 X=0 basefreq=60
New Transformer.TRF_12_2120A phases=1 windings=3 buses=[MRT_311901TRF_12_2120A.2 ET12_2120.1.4 ET12_2120.4.2] conns=[Wye Wye Wye] kvs=[13.3367912182804 0.22 0.22] kvas=[5 5 5] %loadloss=2.1 %noloadloss=0.7
New Linecode.LC_MRT_TRF_12_2120A_1 nphases=1 basefreq=60 r1=15000 x1=0 units=km normamps=0
New Linecode.LC_MRT_TRF_12_2120A_2 nphases=2 basefreq=60 r1=15000 x1=0 units=km normamps=0
New Linecode.LC_MRT_TRF_12_2120A_3 nphases=3 basefreq=60 r1=15000 x1=0 units=km normamps=0
New Linecode.LC_MRT_TRF_12_2120A_4 nphases=4 basefreq=60 r1=15000 x1=0 units=km normamps=0
New Line.Resist_MTR_TRF_12_2120A phases=1 bus1=311901.2 bus2= MRT_311901TRF_12_2120A.2 linecode=LC_MRT_TRF_12_2120A_1 length=0.001 units=km
New Reactor.TRF_12_2120A_R phases=1 bus1=ET12_2120.4 R=15 X=0 basefreq=60
New Transformer.TRF_12_2122A phases=1 windings=3 buses=[MRT_295021TRF_12_2122A.1 ET12_2122.1.4 ET12_2122.4.2] conns=[Wye Wye Wye] kvs=[13.3367912182804 0.22 0.22] kvas=[10 10 10] %loadloss=1.95 %noloadloss=0.5
New Linecode.LC_MRT_TRF_12_2122A_1 nphases=1 basefreq=60 r1=15000 x1=0 units=km normamps=0
New Linecode.LC_MRT_TRF_12_2122A_2 nphases=2 basefreq=60 r1=15000 x1=0 units=km normamps=0
New Linecode.LC_MRT_TRF_12_2122A_3 nphases=3 basefreq=60 r1=15000 x1=0 units=km normamps=0
New Linecode.LC_MRT_TRF_12_2122A_4 nphases=4 basefreq=60 r1=15000 x1=0 units=km normamps=0
New Line.Resist_MTR_TRF_12_2122A phases=1 bus1=295021.1 bus2= MRT_295021TRF_12_2122A.1 linecode=LC_MRT_TRF_12_2122A_1 length=0.001 units=km
New Reactor.TRF_12_2122A_R phases=1 bus1=ET12_2122.4 R=15 X=0 basefreq=60
New Transformer.TRF_12_2133A phases=1 windings=3 buses=[MRT_11521TRF_12_2133A.3 ET12_2133.1.4 ET12_2133.4.2] conns=[Wye Wye Wye] kvs=[13.3367912182804 0.22 0.22] kvas=[15 15 15] %loadloss=1.766667 %noloadloss=0.433333
New Linecode.LC_MRT_TRF_12_2133A_1 nphases=1 basefreq=60 r1=15000 x1=0 units=km normamps=0
New Linecode.LC_MRT_TRF_12_2133A_2 nphases=2 basefreq=60 r1=15000 x1=0 units=km normamps=0
New Linecode.LC_MRT_TRF_12_2133A_3 nphases=3 basefreq=60 r1=15000 x1=0 units=km normamps=0
New Linecode.LC_MRT_TRF_12_2133A_4 nphases=4 basefreq=60 r1=15000 x1=0 units=km normamps=0
New Line.Resist_MTR_TRF_12_2133A phases=1 bus1=11521.3 bus2= MRT_11521TRF_12_2133A.3 linecode=LC_MRT_TRF_12_2133A_1 length=0.001 units=km
New Reactor.TRF_12_2133A_R phases=1 bus1=ET12_2133.4 R=15 X=0 basefreq=60
New Transformer.TRF_12_2134A phases=1 windings=3 buses=[MRT_629381TRF_12_2134A.1 ET12_2134.1.4 ET12_2134.4.2] conns=[Wye Wye Wye] kvs=[13.3367912182804 0.22 0.22] kvas=[10 10 10] %loadloss=1.95 %noloadloss=0.5
New Linecode.LC_MRT_TRF_12_2134A_1 nphases=1 basefreq=60 r1=15000 x1=0 units=km normamps=0
New Linecode.LC_MRT_TRF_12_2134A_2 nphases=2 basefreq=60 r1=15000 x1=0 units=km normamps=0
New Linecode.LC_MRT_TRF_12_2134A_3 nphases=3 basefreq=60 r1=15000 x1=0 units=km normamps=0
New Linecode.LC_MRT_TRF_12_2134A_4 nphases=4 basefreq=60 r1=15000 x1=0 units=km normamps=0
New Line.Resist_MTR_TRF_12_2134A phases=1 bus1=629381.1 bus2= MRT_629381TRF_12_2134A.1 linecode=LC_MRT_TRF_12_2134A_1 length=0.001 units=km
New Reactor.TRF_12_2134A_R phases=1 bus1=ET12_2134.4 R=15 X=0 basefreq=60
New Transformer.TRF_12_2135A phases=1 windings=3 buses=[MRT_41831TRF_12_2135A.1 ET12_2135.1.4 ET12_2135.4.2] conns=[Wye Wye Wye] kvs=[13.3367912182804 0.22 0.22] kvas=[5 5 5] %loadloss=2.1 %noloadloss=0.7
New Linecode.LC_MRT_TRF_12_2135A_1 nphases=1 basefreq=60 r1=15000 x1=0 units=km normamps=0
New Linecode.LC_MRT_TRF_12_2135A_2 nphases=2 basefreq=60 r1=15000 x1=0 units=km normamps=0
New Linecode.LC_MRT_TRF_12_2135A_3 nphases=3 basefreq=60 r1=15000 x1=0 units=km normamps=0
New Linecode.LC_MRT_TRF_12_2135A_4 nphases=4 basefreq=60 r1=15000 x1=0 units=km normamps=0
New Line.Resist_MTR_TRF_12_2135A phases=1 bus1=41831.1 bus2= MRT_41831TRF_12_2135A.1 linecode=LC_MRT_TRF_12_2135A_1 length=0.001 units=km
New Reactor.TRF_12_2135A_R phases=1 bus1=ET12_2135.4 R=15 X=0 basefreq=60
New Transformer.TRF_12_2138A phases=1 windings=3 buses=[MRT_311861TRF_12_2138A.3 ET12_2138.1.4 ET12_2138.4.2] conns=[Wye Wye Wye] kvs=[13.3367912182804 0.22 0.22] kvas=[15 15 15] %loadloss=1.766667 %noloadloss=0.433333
New Linecode.LC_MRT_TRF_12_2138A_1 nphases=1 basefreq=60 r1=15000 x1=0 units=km normamps=0
New Linecode.LC_MRT_TRF_12_2138A_2 nphases=2 basefreq=60 r1=15000 x1=0 units=km normamps=0
New Linecode.LC_MRT_TRF_12_2138A_3 nphases=3 basefreq=60 r1=15000 x1=0 units=km normamps=0
New Linecode.LC_MRT_TRF_12_2138A_4 nphases=4 basefreq=60 r1=15000 x1=0 units=km normamps=0
New Line.Resist_MTR_TRF_12_2138A phases=1 bus1=311861.3 bus2= MRT_311861TRF_12_2138A.3 linecode=LC_MRT_TRF_12_2138A_1 length=0.001 units=km
New Reactor.TRF_12_2138A_R phases=1 bus1=ET12_2138.4 R=15 X=0 basefreq=60
New Transformer.TRF_12_2142A phases=1 windings=3 buses=[MRT_57141TRF_12_2142A.3 ET12_2142.1.4 ET12_2142.4.2] conns=[Wye Wye Wye] kvs=[13.3367912182804 0.22 0.22] kvas=[25 25 25] %loadloss=1.56 %noloadloss=0.36
New Linecode.LC_MRT_TRF_12_2142A_1 nphases=1 basefreq=60 r1=15000 x1=0 units=km normamps=0
New Linecode.LC_MRT_TRF_12_2142A_2 nphases=2 basefreq=60 r1=15000 x1=0 units=km normamps=0
New Linecode.LC_MRT_TRF_12_2142A_3 nphases=3 basefreq=60 r1=15000 x1=0 units=km normamps=0
New Linecode.LC_MRT_TRF_12_2142A_4 nphases=4 basefreq=60 r1=15000 x1=0 units=km normamps=0
New Line.Resist_MTR_TRF_12_2142A phases=1 bus1=57141.3 bus2= MRT_57141TRF_12_2142A.3 linecode=LC_MRT_TRF_12_2142A_1 length=0.001 units=km
New Reactor.TRF_12_2142A_R phases=1 bus1=ET12_2142.4 R=15 X=0 basefreq=60
New Transformer.TRF_12_2194A phases=1 windings=3 buses=[MRT_311831TRF_12_2194A.1 ET12_2194.1.4 ET12_2194.4.2] conns=[Wye Wye Wye] kvs=[13.3367912182804 0.22 0.22] kvas=[5 5 5] %loadloss=2.1 %noloadloss=0.7
New Linecode.LC_MRT_TRF_12_2194A_1 nphases=1 basefreq=60 r1=15000 x1=0 units=km normamps=0
New Linecode.LC_MRT_TRF_12_2194A_2 nphases=2 basefreq=60 r1=15000 x1=0 units=km normamps=0
New Linecode.LC_MRT_TRF_12_2194A_3 nphases=3 basefreq=60 r1=15000 x1=0 units=km normamps=0
New Linecode.LC_MRT_TRF_12_2194A_4 nphases=4 basefreq=60 r1=15000 x1=0 units=km normamps=0
New Line.Resist_MTR_TRF_12_2194A phases=1 bus1=311831.1 bus2= MRT_311831TRF_12_2194A.1 linecode=LC_MRT_TRF_12_2194A_1 length=0.001 units=km
New Reactor.TRF_12_2194A_R phases=1 bus1=ET12_2194.4 R=15 X=0 basefreq=60
New Transformer.TRF_12_2284A phases=1 windings=3 buses=[MRT_31791TRF_12_2284A.3 ET12_2284.1.4 ET12_2284.4.2] conns=[Wye Wye Wye] kvs=[13.3367912182804 0.22 0.22] kvas=[15 15 15] %loadloss=1.766667 %noloadloss=0.433333
New Linecode.LC_MRT_TRF_12_2284A_1 nphases=1 basefreq=60 r1=15000 x1=0 units=km normamps=0
New Linecode.LC_MRT_TRF_12_2284A_2 nphases=2 basefreq=60 r1=15000 x1=0 units=km normamps=0
New Linecode.LC_MRT_TRF_12_2284A_3 nphases=3 basefreq=60 r1=15000 x1=0 units=km normamps=0
New Linecode.LC_MRT_TRF_12_2284A_4 nphases=4 basefreq=60 r1=15000 x1=0 units=km normamps=0
New Line.Resist_MTR_TRF_12_2284A phases=1 bus1=31791.3 bus2= MRT_31791TRF_12_2284A.3 linecode=LC_MRT_TRF_12_2284A_1 length=0.001 units=km
New Reactor.TRF_12_2284A_R phases=1 bus1=ET12_2284.4 R=15 X=0 basefreq=60
New Transformer.TRF_12_2331A phases=1 windings=3 buses=[MRT_24261TRF_12_2331A.2 ET12_2331.1.4 ET12_2331.4.2] conns=[Wye Wye Wye] kvs=[13.3367912182804 0.22 0.22] kvas=[15 15 15] %loadloss=1.766667 %noloadloss=0.433333
New Linecode.LC_MRT_TRF_12_2331A_1 nphases=1 basefreq=60 r1=15000 x1=0 units=km normamps=0
New Linecode.LC_MRT_TRF_12_2331A_2 nphases=2 basefreq=60 r1=15000 x1=0 units=km normamps=0
New Linecode.LC_MRT_TRF_12_2331A_3 nphases=3 basefreq=60 r1=15000 x1=0 units=km normamps=0
New Linecode.LC_MRT_TRF_12_2331A_4 nphases=4 basefreq=60 r1=15000 x1=0 units=km normamps=0
New Line.Resist_MTR_TRF_12_2331A phases=1 bus1=24261.2 bus2= MRT_24261TRF_12_2331A.2 linecode=LC_MRT_TRF_12_2331A_1 length=0.001 units=km
New Reactor.TRF_12_2331A_R phases=1 bus1=ET12_2331.4 R=15 X=0 basefreq=60
New Transformer.TRF_12_2334A phases=1 windings=3 buses=[MRT_370661TRF_12_2334A.1 ET12_2334.1.4 ET12_2334.4.2] conns=[Wye Wye Wye] kvs=[13.3367912182804 0.22 0.22] kvas=[5 5 5] %loadloss=2.1 %noloadloss=0.7
New Linecode.LC_MRT_TRF_12_2334A_1 nphases=1 basefreq=60 r1=15000 x1=0 units=km normamps=0
New Linecode.LC_MRT_TRF_12_2334A_2 nphases=2 basefreq=60 r1=15000 x1=0 units=km normamps=0
New Linecode.LC_MRT_TRF_12_2334A_3 nphases=3 basefreq=60 r1=15000 x1=0 units=km normamps=0
New Linecode.LC_MRT_TRF_12_2334A_4 nphases=4 basefreq=60 r1=15000 x1=0 units=km normamps=0
New Line.Resist_MTR_TRF_12_2334A phases=1 bus1=370661.1 bus2= MRT_370661TRF_12_2334A.1 linecode=LC_MRT_TRF_12_2334A_1 length=0.001 units=km
New Reactor.TRF_12_2334A_R phases=1 bus1=ET12_2334.4 R=15 X=0 basefreq=60
New Transformer.TRF_12_2342A phases=1 windings=3 buses=[MRT_45131TRF_12_2342A.2 ET12_2342.1.4 ET12_2342.4.2] conns=[Wye Wye Wye] kvs=[13.3367912182804 0.22 0.22] kvas=[15 15 15] %loadloss=1.766667 %noloadloss=0.433333
New Linecode.LC_MRT_TRF_12_2342A_1 nphases=1 basefreq=60 r1=15000 x1=0 units=km normamps=0
New Linecode.LC_MRT_TRF_12_2342A_2 nphases=2 basefreq=60 r1=15000 x1=0 units=km normamps=0
New Linecode.LC_MRT_TRF_12_2342A_3 nphases=3 basefreq=60 r1=15000 x1=0 units=km normamps=0
New Linecode.LC_MRT_TRF_12_2342A_4 nphases=4 basefreq=60 r1=15000 x1=0 units=km normamps=0
New Line.Resist_MTR_TRF_12_2342A phases=1 bus1=45131.2 bus2= MRT_45131TRF_12_2342A.2 linecode=LC_MRT_TRF_12_2342A_1 length=0.001 units=km
New Reactor.TRF_12_2342A_R phases=1 bus1=ET12_2342.4 R=15 X=0 basefreq=60
New Transformer.TRF_12_2343A phases=1 windings=3 buses=[MRT_47581TRF_12_2343A.1 ET12_2343.1.4 ET12_2343.4.2] conns=[Wye Wye Wye] kvs=[13.3367912182804 0.22 0.22] kvas=[15 15 15] %loadloss=1.766667 %noloadloss=0.433333
New Linecode.LC_MRT_TRF_12_2343A_1 nphases=1 basefreq=60 r1=15000 x1=0 units=km normamps=0
New Linecode.LC_MRT_TRF_12_2343A_2 nphases=2 basefreq=60 r1=15000 x1=0 units=km normamps=0
New Linecode.LC_MRT_TRF_12_2343A_3 nphases=3 basefreq=60 r1=15000 x1=0 units=km normamps=0
New Linecode.LC_MRT_TRF_12_2343A_4 nphases=4 basefreq=60 r1=15000 x1=0 units=km normamps=0
New Line.Resist_MTR_TRF_12_2343A phases=1 bus1=47581.1 bus2= MRT_47581TRF_12_2343A.1 linecode=LC_MRT_TRF_12_2343A_1 length=0.001 units=km
New Reactor.TRF_12_2343A_R phases=1 bus1=ET12_2343.4 R=15 X=0 basefreq=60
New Transformer.TRF_12_2375A phases=1 windings=3 buses=[MRT_74981TRF_12_2375A.2 ET12_2375.1.4 ET12_2375.4.2] conns=[Wye Wye Wye] kvs=[13.3367912182804 0.22 0.22] kvas=[25 25 25] %loadloss=1.56 %noloadloss=0.36
New Linecode.LC_MRT_TRF_12_2375A_1 nphases=1 basefreq=60 r1=15000 x1=0 units=km normamps=0
New Linecode.LC_MRT_TRF_12_2375A_2 nphases=2 basefreq=60 r1=15000 x1=0 units=km normamps=0
New Linecode.LC_MRT_TRF_12_2375A_3 nphases=3 basefreq=60 r1=15000 x1=0 units=km normamps=0
New Linecode.LC_MRT_TRF_12_2375A_4 nphases=4 basefreq=60 r1=15000 x1=0 units=km normamps=0
New Line.Resist_MTR_TRF_12_2375A phases=1 bus1=74981.2 bus2= MRT_74981TRF_12_2375A.2 linecode=LC_MRT_TRF_12_2375A_1 length=0.001 units=km
New Reactor.TRF_12_2375A_R phases=1 bus1=ET12_2375.4 R=15 X=0 basefreq=60
New Transformer.TRF_12_2376A phases=1 windings=3 buses=[MRT_21521TRF_12_2376A.1 ET12_2376.1.4 ET12_2376.4.2] conns=[Wye Wye Wye] kvs=[13.3367912182804 0.22 0.22] kvas=[10 10 10] %loadloss=1.95 %noloadloss=0.5
New Linecode.LC_MRT_TRF_12_2376A_1 nphases=1 basefreq=60 r1=15000 x1=0 units=km normamps=0
New Linecode.LC_MRT_TRF_12_2376A_2 nphases=2 basefreq=60 r1=15000 x1=0 units=km normamps=0
New Linecode.LC_MRT_TRF_12_2376A_3 nphases=3 basefreq=60 r1=15000 x1=0 units=km normamps=0
New Linecode.LC_MRT_TRF_12_2376A_4 nphases=4 basefreq=60 r1=15000 x1=0 units=km normamps=0
New Line.Resist_MTR_TRF_12_2376A phases=1 bus1=21521.1 bus2= MRT_21521TRF_12_2376A.1 linecode=LC_MRT_TRF_12_2376A_1 length=0.001 units=km
New Reactor.TRF_12_2376A_R phases=1 bus1=ET12_2376.4 R=15 X=0 basefreq=60
New Transformer.TRF_12_2387A phases=1 windings=3 buses=[MRT_47421TRF_12_2387A.1 ET12_2387.1.4 ET12_2387.4.2] conns=[Wye Wye Wye] kvs=[13.3367912182804 0.22 0.22] kvas=[10 10 10] %loadloss=1.95 %noloadloss=0.5
New Linecode.LC_MRT_TRF_12_2387A_1 nphases=1 basefreq=60 r1=15000 x1=0 units=km normamps=0
New Linecode.LC_MRT_TRF_12_2387A_2 nphases=2 basefreq=60 r1=15000 x1=0 units=km normamps=0
New Linecode.LC_MRT_TRF_12_2387A_3 nphases=3 basefreq=60 r1=15000 x1=0 units=km normamps=0
New Linecode.LC_MRT_TRF_12_2387A_4 nphases=4 basefreq=60 r1=15000 x1=0 units=km normamps=0
New Line.Resist_MTR_TRF_12_2387A phases=1 bus1=47421.1 bus2= MRT_47421TRF_12_2387A.1 linecode=LC_MRT_TRF_12_2387A_1 length=0.001 units=km
New Reactor.TRF_12_2387A_R phases=1 bus1=ET12_2387.4 R=15 X=0 basefreq=60
New Transformer.TRF_12_2453A phases=1 windings=3 buses=[MRT_63171TRF_12_2453A.3 ET12_2453.1.4 ET12_2453.4.2] conns=[Wye Wye Wye] kvs=[13.3367912182804 0.22 0.22] kvas=[10 10 10] %loadloss=1.95 %noloadloss=0.5
New Linecode.LC_MRT_TRF_12_2453A_1 nphases=1 basefreq=60 r1=15000 x1=0 units=km normamps=0
New Linecode.LC_MRT_TRF_12_2453A_2 nphases=2 basefreq=60 r1=15000 x1=0 units=km normamps=0
New Linecode.LC_MRT_TRF_12_2453A_3 nphases=3 basefreq=60 r1=15000 x1=0 units=km normamps=0
New Linecode.LC_MRT_TRF_12_2453A_4 nphases=4 basefreq=60 r1=15000 x1=0 units=km normamps=0
New Line.Resist_MTR_TRF_12_2453A phases=1 bus1=63171.3 bus2= MRT_63171TRF_12_2453A.3 linecode=LC_MRT_TRF_12_2453A_1 length=0.001 units=km
New Reactor.TRF_12_2453A_R phases=1 bus1=ET12_2453.4 R=15 X=0 basefreq=60
New Transformer.TRF_12_2463A phases=1 windings=3 buses=[MRT_45311TRF_12_2463A.1 ET12_2463.1.4 ET12_2463.4.2] conns=[Wye Wye Wye] kvs=[13.3367912182804 0.22 0.22] kvas=[10 10 10] %loadloss=1.95 %noloadloss=0.5
New Linecode.LC_MRT_TRF_12_2463A_1 nphases=1 basefreq=60 r1=15000 x1=0 units=km normamps=0
New Linecode.LC_MRT_TRF_12_2463A_2 nphases=2 basefreq=60 r1=15000 x1=0 units=km normamps=0
New Linecode.LC_MRT_TRF_12_2463A_3 nphases=3 basefreq=60 r1=15000 x1=0 units=km normamps=0
New Linecode.LC_MRT_TRF_12_2463A_4 nphases=4 basefreq=60 r1=15000 x1=0 units=km normamps=0
New Line.Resist_MTR_TRF_12_2463A phases=1 bus1=45311.1 bus2= MRT_45311TRF_12_2463A.1 linecode=LC_MRT_TRF_12_2463A_1 length=0.001 units=km
New Reactor.TRF_12_2463A_R phases=1 bus1=ET12_2463.4 R=15 X=0 basefreq=60
New Transformer.TRF_12_2472A phases=1 windings=3 buses=[MRT_361731TRF_12_2472A.3 ET12_2472.1.4 ET12_2472.4.2] conns=[Wye Wye Wye] kvs=[13.3367912182804 0.22 0.22] kvas=[10 10 10] %loadloss=1.95 %noloadloss=0.5
New Linecode.LC_MRT_TRF_12_2472A_1 nphases=1 basefreq=60 r1=15000 x1=0 units=km normamps=0
New Linecode.LC_MRT_TRF_12_2472A_2 nphases=2 basefreq=60 r1=15000 x1=0 units=km normamps=0
New Linecode.LC_MRT_TRF_12_2472A_3 nphases=3 basefreq=60 r1=15000 x1=0 units=km normamps=0
New Linecode.LC_MRT_TRF_12_2472A_4 nphases=4 basefreq=60 r1=15000 x1=0 units=km normamps=0
New Line.Resist_MTR_TRF_12_2472A phases=1 bus1=361731.3 bus2= MRT_361731TRF_12_2472A.3 linecode=LC_MRT_TRF_12_2472A_1 length=0.001 units=km
New Reactor.TRF_12_2472A_R phases=1 bus1=ET12_2472.4 R=15 X=0 basefreq=60
New Transformer.TRF_12_2513A phases=1 windings=3 buses=[MRT_325811TRF_12_2513A.1 ET12_2513.1.4 ET12_2513.4.2] conns=[Wye Wye Wye] kvs=[13.3367912182804 0.22 0.22] kvas=[5 5 5] %loadloss=2.1 %noloadloss=0.7
New Linecode.LC_MRT_TRF_12_2513A_1 nphases=1 basefreq=60 r1=15000 x1=0 units=km normamps=0
New Linecode.LC_MRT_TRF_12_2513A_2 nphases=2 basefreq=60 r1=15000 x1=0 units=km normamps=0
New Linecode.LC_MRT_TRF_12_2513A_3 nphases=3 basefreq=60 r1=15000 x1=0 units=km normamps=0
New Linecode.LC_MRT_TRF_12_2513A_4 nphases=4 basefreq=60 r1=15000 x1=0 units=km normamps=0
New Line.Resist_MTR_TRF_12_2513A phases=1 bus1=325811.1 bus2= MRT_325811TRF_12_2513A.1 linecode=LC_MRT_TRF_12_2513A_1 length=0.001 units=km
New Reactor.TRF_12_2513A_R phases=1 bus1=ET12_2513.4 R=15 X=0 basefreq=60
New Transformer.TRF_12_2601A phases=1 windings=3 buses=[MRT_372391TRF_12_2601A.1 ET12_2601.1.4 ET12_2601.4.2] conns=[Wye Wye Wye] kvs=[13.3367912182804 0.22 0.22] kvas=[5 5 5] %loadloss=2.1 %noloadloss=0.7
New Linecode.LC_MRT_TRF_12_2601A_1 nphases=1 basefreq=60 r1=15000 x1=0 units=km normamps=0
New Linecode.LC_MRT_TRF_12_2601A_2 nphases=2 basefreq=60 r1=15000 x1=0 units=km normamps=0
New Linecode.LC_MRT_TRF_12_2601A_3 nphases=3 basefreq=60 r1=15000 x1=0 units=km normamps=0
New Linecode.LC_MRT_TRF_12_2601A_4 nphases=4 basefreq=60 r1=15000 x1=0 units=km normamps=0
New Line.Resist_MTR_TRF_12_2601A phases=1 bus1=372391.1 bus2= MRT_372391TRF_12_2601A.1 linecode=LC_MRT_TRF_12_2601A_1 length=0.001 units=km
New Reactor.TRF_12_2601A_R phases=1 bus1=ET12_2601.4 R=15 X=0 basefreq=60
New Transformer.TRF_12_2668A phases=1 windings=3 buses=[MRT_59761TRF_12_2668A.1 ET12_2668.1.4 ET12_2668.4.2] conns=[Wye Wye Wye] kvs=[13.3367912182804 0.22 0.22] kvas=[10 10 10] %loadloss=1.95 %noloadloss=0.5
New Linecode.LC_MRT_TRF_12_2668A_1 nphases=1 basefreq=60 r1=15000 x1=0 units=km normamps=0
New Linecode.LC_MRT_TRF_12_2668A_2 nphases=2 basefreq=60 r1=15000 x1=0 units=km normamps=0
New Linecode.LC_MRT_TRF_12_2668A_3 nphases=3 basefreq=60 r1=15000 x1=0 units=km normamps=0
New Linecode.LC_MRT_TRF_12_2668A_4 nphases=4 basefreq=60 r1=15000 x1=0 units=km normamps=0
New Line.Resist_MTR_TRF_12_2668A phases=1 bus1=59761.1 bus2= MRT_59761TRF_12_2668A.1 linecode=LC_MRT_TRF_12_2668A_1 length=0.001 units=km
New Reactor.TRF_12_2668A_R phases=1 bus1=ET12_2668.4 R=15 X=0 basefreq=60
New Transformer.TRF_12_2745A phases=1 windings=3 buses=[MRT_59671TRF_12_2745A.1 ET12_2745.1.4 ET12_2745.4.2] conns=[Wye Wye Wye] kvs=[13.3367912182804 0.22 0.22] kvas=[10 10 10] %loadloss=1.95 %noloadloss=0.5
New Linecode.LC_MRT_TRF_12_2745A_1 nphases=1 basefreq=60 r1=15000 x1=0 units=km normamps=0
New Linecode.LC_MRT_TRF_12_2745A_2 nphases=2 basefreq=60 r1=15000 x1=0 units=km normamps=0
New Linecode.LC_MRT_TRF_12_2745A_3 nphases=3 basefreq=60 r1=15000 x1=0 units=km normamps=0
New Linecode.LC_MRT_TRF_12_2745A_4 nphases=4 basefreq=60 r1=15000 x1=0 units=km normamps=0
New Line.Resist_MTR_TRF_12_2745A phases=1 bus1=59671.1 bus2= MRT_59671TRF_12_2745A.1 linecode=LC_MRT_TRF_12_2745A_1 length=0.001 units=km
New Reactor.TRF_12_2745A_R phases=1 bus1=ET12_2745.4 R=15 X=0 basefreq=60
New Transformer.TRF_12_2747A phases=1 windings=3 buses=[49061.3.1 ET12_2747.1.4 ET12_2747.4.2] conns=[Delta Wye Wye] kvs=[23.1 0.22 0.22] kvas=[25 25 25] %loadloss=1.68 %noloadloss=0.4
New Reactor.TRF_12_2747A_R phases=1 bus1=ET12_2747.4 R=15 X=0 basefreq=60
New Transformer.TRF_12_2750A phases=1 windings=3 buses=[MRT_45191TRF_12_2750A.2 ET12_2750.1.4 ET12_2750.4.2] conns=[Wye Wye Wye] kvs=[13.3367912182804 0.22 0.22] kvas=[10 10 10] %loadloss=1.95 %noloadloss=0.5
New Linecode.LC_MRT_TRF_12_2750A_1 nphases=1 basefreq=60 r1=15000 x1=0 units=km normamps=0
New Linecode.LC_MRT_TRF_12_2750A_2 nphases=2 basefreq=60 r1=15000 x1=0 units=km normamps=0
New Linecode.LC_MRT_TRF_12_2750A_3 nphases=3 basefreq=60 r1=15000 x1=0 units=km normamps=0
New Linecode.LC_MRT_TRF_12_2750A_4 nphases=4 basefreq=60 r1=15000 x1=0 units=km normamps=0
New Line.Resist_MTR_TRF_12_2750A phases=1 bus1=45191.2 bus2= MRT_45191TRF_12_2750A.2 linecode=LC_MRT_TRF_12_2750A_1 length=0.001 units=km
New Reactor.TRF_12_2750A_R phases=1 bus1=ET12_2750.4 R=15 X=0 basefreq=60
New Transformer.TRF_12_2898A phases=1 windings=3 buses=[MRT_22111TRF_12_2898A.1 ET12_2898.1.4 ET12_2898.4.2] conns=[Wye Wye Wye] kvs=[13.3367912182804 0.22 0.22] kvas=[10 10 10] %loadloss=1.95 %noloadloss=0.5
New Linecode.LC_MRT_TRF_12_2898A_1 nphases=1 basefreq=60 r1=15000 x1=0 units=km normamps=0
New Linecode.LC_MRT_TRF_12_2898A_2 nphases=2 basefreq=60 r1=15000 x1=0 units=km normamps=0
New Linecode.LC_MRT_TRF_12_2898A_3 nphases=3 basefreq=60 r1=15000 x1=0 units=km normamps=0
New Linecode.LC_MRT_TRF_12_2898A_4 nphases=4 basefreq=60 r1=15000 x1=0 units=km normamps=0
New Line.Resist_MTR_TRF_12_2898A phases=1 bus1=22111.1 bus2= MRT_22111TRF_12_2898A.1 linecode=LC_MRT_TRF_12_2898A_1 length=0.001 units=km
New Reactor.TRF_12_2898A_R phases=1 bus1=ET12_2898.4 R=15 X=0 basefreq=60
New Transformer.TRF_12_2899A phases=1 windings=3 buses=[MRT_45351TRF_12_2899A.1 ET12_2899.1.4 ET12_2899.4.2] conns=[Wye Wye Wye] kvs=[13.3367912182804 0.22 0.22] kvas=[15 15 15] %loadloss=1.766667 %noloadloss=0.433333
New Linecode.LC_MRT_TRF_12_2899A_1 nphases=1 basefreq=60 r1=15000 x1=0 units=km normamps=0
New Linecode.LC_MRT_TRF_12_2899A_2 nphases=2 basefreq=60 r1=15000 x1=0 units=km normamps=0
New Linecode.LC_MRT_TRF_12_2899A_3 nphases=3 basefreq=60 r1=15000 x1=0 units=km normamps=0
New Linecode.LC_MRT_TRF_12_2899A_4 nphases=4 basefreq=60 r1=15000 x1=0 units=km normamps=0
New Line.Resist_MTR_TRF_12_2899A phases=1 bus1=45351.1 bus2= MRT_45351TRF_12_2899A.1 linecode=LC_MRT_TRF_12_2899A_1 length=0.001 units=km
New Reactor.TRF_12_2899A_R phases=1 bus1=ET12_2899.4 R=15 X=0 basefreq=60
New Transformer.TRF_12_2900A phases=1 windings=3 buses=[MRT_49581TRF_12_2900A.1 ET12_2900.1.4 ET12_2900.4.2] conns=[Wye Wye Wye] kvs=[13.3367912182804 0.22 0.22] kvas=[10 10 10] %loadloss=1.95 %noloadloss=0.5
New Linecode.LC_MRT_TRF_12_2900A_1 nphases=1 basefreq=60 r1=15000 x1=0 units=km normamps=0
New Linecode.LC_MRT_TRF_12_2900A_2 nphases=2 basefreq=60 r1=15000 x1=0 units=km normamps=0
New Linecode.LC_MRT_TRF_12_2900A_3 nphases=3 basefreq=60 r1=15000 x1=0 units=km normamps=0
New Linecode.LC_MRT_TRF_12_2900A_4 nphases=4 basefreq=60 r1=15000 x1=0 units=km normamps=0
New Line.Resist_MTR_TRF_12_2900A phases=1 bus1=49581.1 bus2= MRT_49581TRF_12_2900A.1 linecode=LC_MRT_TRF_12_2900A_1 length=0.001 units=km
New Reactor.TRF_12_2900A_R phases=1 bus1=ET12_2900.4 R=15 X=0 basefreq=60
New Transformer.TRF_12_2990A phases=1 windings=3 buses=[MRT_45971TRF_12_2990A.3 ET12_2990.1.4 ET12_2990.4.2] conns=[Wye Wye Wye] kvs=[13.3367912182804 0.11 0.11] kvas=[5 5 5] %loadloss=2.1 %noloadloss=0.7
New Linecode.LC_MRT_TRF_12_2990A_1 nphases=1 basefreq=60 r1=15000 x1=0 units=km normamps=0
New Linecode.LC_MRT_TRF_12_2990A_2 nphases=2 basefreq=60 r1=15000 x1=0 units=km normamps=0
New Linecode.LC_MRT_TRF_12_2990A_3 nphases=3 basefreq=60 r1=15000 x1=0 units=km normamps=0
New Linecode.LC_MRT_TRF_12_2990A_4 nphases=4 basefreq=60 r1=15000 x1=0 units=km normamps=0
New Line.Resist_MTR_TRF_12_2990A phases=1 bus1=45971.3 bus2= MRT_45971TRF_12_2990A.3 linecode=LC_MRT_TRF_12_2990A_1 length=0.001 units=km
New Reactor.TRF_12_2990A_R phases=1 bus1=ET12_2990.4 R=15 X=0 basefreq=60
New Transformer.TRF_12_3030A phases=1 windings=3 buses=[MRT_619161TRF_12_3030A.1 ET12_3030.1.4 ET12_3030.4.2] conns=[Wye Wye Wye] kvs=[13.3367912182804 0.22 0.22] kvas=[5 5 5] %loadloss=2.1 %noloadloss=0.7
New Linecode.LC_MRT_TRF_12_3030A_1 nphases=1 basefreq=60 r1=15000 x1=0 units=km normamps=0
New Linecode.LC_MRT_TRF_12_3030A_2 nphases=2 basefreq=60 r1=15000 x1=0 units=km normamps=0
New Linecode.LC_MRT_TRF_12_3030A_3 nphases=3 basefreq=60 r1=15000 x1=0 units=km normamps=0
New Linecode.LC_MRT_TRF_12_3030A_4 nphases=4 basefreq=60 r1=15000 x1=0 units=km normamps=0
New Line.Resist_MTR_TRF_12_3030A phases=1 bus1=619161.1 bus2= MRT_619161TRF_12_3030A.1 linecode=LC_MRT_TRF_12_3030A_1 length=0.001 units=km
New Reactor.TRF_12_3030A_R phases=1 bus1=ET12_3030.4 R=15 X=0 basefreq=60
New Transformer.TRF_12_3031A phases=1 windings=3 buses=[MRT_619111TRF_12_3031A.1 ET12_3031.1.4 ET12_3031.4.2] conns=[Wye Wye Wye] kvs=[13.3367912182804 0.22 0.22] kvas=[10 10 10] %loadloss=1.95 %noloadloss=0.5
New Linecode.LC_MRT_TRF_12_3031A_1 nphases=1 basefreq=60 r1=15000 x1=0 units=km normamps=0
New Linecode.LC_MRT_TRF_12_3031A_2 nphases=2 basefreq=60 r1=15000 x1=0 units=km normamps=0
New Linecode.LC_MRT_TRF_12_3031A_3 nphases=3 basefreq=60 r1=15000 x1=0 units=km normamps=0
New Linecode.LC_MRT_TRF_12_3031A_4 nphases=4 basefreq=60 r1=15000 x1=0 units=km normamps=0
New Line.Resist_MTR_TRF_12_3031A phases=1 bus1=619111.1 bus2= MRT_619111TRF_12_3031A.1 linecode=LC_MRT_TRF_12_3031A_1 length=0.001 units=km
New Reactor.TRF_12_3031A_R phases=1 bus1=ET12_3031.4 R=15 X=0 basefreq=60
New Transformer.TRF_12_3032A phases=1 windings=3 buses=[MRT_614741TRF_12_3032A.1 ET12_3032.1.4 ET12_3032.4.2] conns=[Wye Wye Wye] kvs=[13.3367912182804 0.22 0.22] kvas=[10 10 10] %loadloss=1.95 %noloadloss=0.5
New Linecode.LC_MRT_TRF_12_3032A_1 nphases=1 basefreq=60 r1=15000 x1=0 units=km normamps=0
New Linecode.LC_MRT_TRF_12_3032A_2 nphases=2 basefreq=60 r1=15000 x1=0 units=km normamps=0
New Linecode.LC_MRT_TRF_12_3032A_3 nphases=3 basefreq=60 r1=15000 x1=0 units=km normamps=0
New Linecode.LC_MRT_TRF_12_3032A_4 nphases=4 basefreq=60 r1=15000 x1=0 units=km normamps=0
New Line.Resist_MTR_TRF_12_3032A phases=1 bus1=614741.1 bus2= MRT_614741TRF_12_3032A.1 linecode=LC_MRT_TRF_12_3032A_1 length=0.001 units=km
New Reactor.TRF_12_3032A_R phases=1 bus1=ET12_3032.4 R=15 X=0 basefreq=60
New Transformer.TRF_12_3088A phases=1 windings=3 buses=[MRT_587391TRF_12_3088A.1 ET12_3088.1.4 ET12_3088.4.2] conns=[Wye Wye Wye] kvs=[13.3367912182804 0.22 0.22] kvas=[15 15 15] %loadloss=1.766667 %noloadloss=0.433333
New Linecode.LC_MRT_TRF_12_3088A_1 nphases=1 basefreq=60 r1=15000 x1=0 units=km normamps=0
New Linecode.LC_MRT_TRF_12_3088A_2 nphases=2 basefreq=60 r1=15000 x1=0 units=km normamps=0
New Linecode.LC_MRT_TRF_12_3088A_3 nphases=3 basefreq=60 r1=15000 x1=0 units=km normamps=0
New Linecode.LC_MRT_TRF_12_3088A_4 nphases=4 basefreq=60 r1=15000 x1=0 units=km normamps=0
New Line.Resist_MTR_TRF_12_3088A phases=1 bus1=587391.1 bus2= MRT_587391TRF_12_3088A.1 linecode=LC_MRT_TRF_12_3088A_1 length=0.001 units=km
New Reactor.TRF_12_3088A_R phases=1 bus1=ET12_3088.4 R=15 X=0 basefreq=60
New Transformer.TRF_12_3089A phases=1 windings=3 buses=[MRT_46151TRF_12_3089A.1 ET12_3089.1.4 ET12_3089.4.2] conns=[Wye Wye Wye] kvs=[13.3367912182804 0.22 0.22] kvas=[5 5 5] %loadloss=2.1 %noloadloss=0.7
New Linecode.LC_MRT_TRF_12_3089A_1 nphases=1 basefreq=60 r1=15000 x1=0 units=km normamps=0
New Linecode.LC_MRT_TRF_12_3089A_2 nphases=2 basefreq=60 r1=15000 x1=0 units=km normamps=0
New Linecode.LC_MRT_TRF_12_3089A_3 nphases=3 basefreq=60 r1=15000 x1=0 units=km normamps=0
New Linecode.LC_MRT_TRF_12_3089A_4 nphases=4 basefreq=60 r1=15000 x1=0 units=km normamps=0
New Line.Resist_MTR_TRF_12_3089A phases=1 bus1=46151.1 bus2= MRT_46151TRF_12_3089A.1 linecode=LC_MRT_TRF_12_3089A_1 length=0.001 units=km
New Reactor.TRF_12_3089A_R phases=1 bus1=ET12_3089.4 R=15 X=0 basefreq=60
New Transformer.TRF_12_3101A phases=3 windings=2 buses=[41821.1.2.3 ET12_3101.1.2.3.4] conns=[Delta Wye] kvs=[23.1 0.38] kvas=[30 30] %loadloss=2.1 %noloadloss=0.533333
New Reactor.TRF_12_3101A_R phases=1 bus1=ET12_3101.4 R=15 X=0 basefreq=60
New Transformer.TRF_12_3109A phases=3 windings=2 buses=[640501.1.2.3 ET12_3109.1.2.3.4] conns=[Delta Wye] kvs=[23.1 0.38] kvas=[15 15] %loadloss=2.5 %noloadloss=0.633333
New Reactor.TRF_12_3109A_R phases=1 bus1=ET12_3109.4 R=15 X=0 basefreq=60
New Transformer.TRF_12_3114A phases=1 windings=3 buses=[MRT_540451TRF_12_3114A.3 ET12_3114.1.4 ET12_3114.4.2] conns=[Wye Wye Wye] kvs=[13.3367912182804 0.22 0.22] kvas=[15 15 15] %loadloss=1.766667 %noloadloss=0.433333
New Linecode.LC_MRT_TRF_12_3114A_1 nphases=1 basefreq=60 r1=15000 x1=0 units=km normamps=0
New Linecode.LC_MRT_TRF_12_3114A_2 nphases=2 basefreq=60 r1=15000 x1=0 units=km normamps=0
New Linecode.LC_MRT_TRF_12_3114A_3 nphases=3 basefreq=60 r1=15000 x1=0 units=km normamps=0
New Linecode.LC_MRT_TRF_12_3114A_4 nphases=4 basefreq=60 r1=15000 x1=0 units=km normamps=0
New Line.Resist_MTR_TRF_12_3114A phases=1 bus1=540451.3 bus2= MRT_540451TRF_12_3114A.3 linecode=LC_MRT_TRF_12_3114A_1 length=0.001 units=km
New Reactor.TRF_12_3114A_R phases=1 bus1=ET12_3114.4 R=15 X=0 basefreq=60
New Transformer.TRF_12_3179A phases=1 windings=3 buses=[MRT_14781TRF_12_3179A.3 ET12_3179.1.4 ET12_3179.4.2] conns=[Wye Wye Wye] kvs=[13.3367912182804 0.22 0.22] kvas=[10 10 10] %loadloss=1.95 %noloadloss=0.5
New Linecode.LC_MRT_TRF_12_3179A_1 nphases=1 basefreq=60 r1=15000 x1=0 units=km normamps=0
New Linecode.LC_MRT_TRF_12_3179A_2 nphases=2 basefreq=60 r1=15000 x1=0 units=km normamps=0
New Linecode.LC_MRT_TRF_12_3179A_3 nphases=3 basefreq=60 r1=15000 x1=0 units=km normamps=0
New Linecode.LC_MRT_TRF_12_3179A_4 nphases=4 basefreq=60 r1=15000 x1=0 units=km normamps=0
New Line.Resist_MTR_TRF_12_3179A phases=1 bus1=14781.3 bus2= MRT_14781TRF_12_3179A.3 linecode=LC_MRT_TRF_12_3179A_1 length=0.001 units=km
New Reactor.TRF_12_3179A_R phases=1 bus1=ET12_3179.4 R=15 X=0 basefreq=60
New Transformer.TRF_12_3208A phases=1 windings=3 buses=[MRT_11671TRF_12_3208A.2 ET12_3208.1.4 ET12_3208.4.2] conns=[Wye Wye Wye] kvs=[13.3367912182804 0.22 0.22] kvas=[10 10 10] %loadloss=1.95 %noloadloss=0.5
New Linecode.LC_MRT_TRF_12_3208A_1 nphases=1 basefreq=60 r1=15000 x1=0 units=km normamps=0
New Linecode.LC_MRT_TRF_12_3208A_2 nphases=2 basefreq=60 r1=15000 x1=0 units=km normamps=0
New Linecode.LC_MRT_TRF_12_3208A_3 nphases=3 basefreq=60 r1=15000 x1=0 units=km normamps=0
New Linecode.LC_MRT_TRF_12_3208A_4 nphases=4 basefreq=60 r1=15000 x1=0 units=km normamps=0
New Line.Resist_MTR_TRF_12_3208A phases=1 bus1=11671.2 bus2= MRT_11671TRF_12_3208A.2 linecode=LC_MRT_TRF_12_3208A_1 length=0.001 units=km
New Reactor.TRF_12_3208A_R phases=1 bus1=ET12_3208.4 R=15 X=0 basefreq=60
New Transformer.TRF_12_3219A phases=1 windings=3 buses=[MRT_630501TRF_12_3219A.1 ET12_3219.1.4 ET12_3219.4.2] conns=[Wye Wye Wye] kvs=[13.3367912182804 0.22 0.22] kvas=[15 15 15] %loadloss=1.766667 %noloadloss=0.433333
New Linecode.LC_MRT_TRF_12_3219A_1 nphases=1 basefreq=60 r1=15000 x1=0 units=km normamps=0
New Linecode.LC_MRT_TRF_12_3219A_2 nphases=2 basefreq=60 r1=15000 x1=0 units=km normamps=0
New Linecode.LC_MRT_TRF_12_3219A_3 nphases=3 basefreq=60 r1=15000 x1=0 units=km normamps=0
New Linecode.LC_MRT_TRF_12_3219A_4 nphases=4 basefreq=60 r1=15000 x1=0 units=km normamps=0
New Line.Resist_MTR_TRF_12_3219A phases=1 bus1=630501.1 bus2= MRT_630501TRF_12_3219A.1 linecode=LC_MRT_TRF_12_3219A_1 length=0.001 units=km
New Reactor.TRF_12_3219A_R phases=1 bus1=ET12_3219.4 R=15 X=0 basefreq=60
New Transformer.TRF_12_3225A phases=1 windings=3 buses=[MRT_67221TRF_12_3225A.3 ET12_3225.1.4 ET12_3225.4.2] conns=[Wye Wye Wye] kvs=[13.3367912182804 0.22 0.22] kvas=[10 10 10] %loadloss=1.95 %noloadloss=0.5
New Linecode.LC_MRT_TRF_12_3225A_1 nphases=1 basefreq=60 r1=15000 x1=0 units=km normamps=0
New Linecode.LC_MRT_TRF_12_3225A_2 nphases=2 basefreq=60 r1=15000 x1=0 units=km normamps=0
New Linecode.LC_MRT_TRF_12_3225A_3 nphases=3 basefreq=60 r1=15000 x1=0 units=km normamps=0
New Linecode.LC_MRT_TRF_12_3225A_4 nphases=4 basefreq=60 r1=15000 x1=0 units=km normamps=0
New Line.Resist_MTR_TRF_12_3225A phases=1 bus1=67221.3 bus2= MRT_67221TRF_12_3225A.3 linecode=LC_MRT_TRF_12_3225A_1 length=0.001 units=km
New Reactor.TRF_12_3225A_R phases=1 bus1=ET12_3225.4 R=15 X=0 basefreq=60
New Transformer.TRF_12_3268A phases=3 windings=2 buses=[364931.1.2.3 ET12_3268.1.2.3.4] conns=[Delta Wye] kvs=[23.1 0.38] kvas=[15 15] %loadloss=2.5 %noloadloss=0.633333
New Reactor.TRF_12_3268A_R phases=1 bus1=ET12_3268.4 R=15 X=0 basefreq=60
New Transformer.TRF_12_3304A phases=1 windings=3 buses=[MRT_61531TRF_12_3304A.3 ET12_3304.1.4 ET12_3304.4.2] conns=[Wye Wye Wye] kvs=[13.3367912182804 0.22 0.22] kvas=[15 15 15] %loadloss=1.766667 %noloadloss=0.433333
New Linecode.LC_MRT_TRF_12_3304A_1 nphases=1 basefreq=60 r1=15000 x1=0 units=km normamps=0
New Linecode.LC_MRT_TRF_12_3304A_2 nphases=2 basefreq=60 r1=15000 x1=0 units=km normamps=0
New Linecode.LC_MRT_TRF_12_3304A_3 nphases=3 basefreq=60 r1=15000 x1=0 units=km normamps=0
New Linecode.LC_MRT_TRF_12_3304A_4 nphases=4 basefreq=60 r1=15000 x1=0 units=km normamps=0
New Line.Resist_MTR_TRF_12_3304A phases=1 bus1=61531.3 bus2= MRT_61531TRF_12_3304A.3 linecode=LC_MRT_TRF_12_3304A_1 length=0.001 units=km
New Reactor.TRF_12_3304A_R phases=1 bus1=ET12_3304.4 R=15 X=0 basefreq=60
New Transformer.TRF_12_3305A phases=1 windings=3 buses=[MRT_330621TRF_12_3305A.2 ET12_3305.1.4 ET12_3305.4.2] conns=[Wye Wye Wye] kvs=[13.3367912182804 0.22 0.22] kvas=[5 5 5] %loadloss=2.1 %noloadloss=0.7
New Linecode.LC_MRT_TRF_12_3305A_1 nphases=1 basefreq=60 r1=15000 x1=0 units=km normamps=0
New Linecode.LC_MRT_TRF_12_3305A_2 nphases=2 basefreq=60 r1=15000 x1=0 units=km normamps=0
New Linecode.LC_MRT_TRF_12_3305A_3 nphases=3 basefreq=60 r1=15000 x1=0 units=km normamps=0
New Linecode.LC_MRT_TRF_12_3305A_4 nphases=4 basefreq=60 r1=15000 x1=0 units=km normamps=0
New Line.Resist_MTR_TRF_12_3305A phases=1 bus1=330621.2 bus2= MRT_330621TRF_12_3305A.2 linecode=LC_MRT_TRF_12_3305A_1 length=0.001 units=km
New Reactor.TRF_12_3305A_R phases=1 bus1=ET12_3305.4 R=15 X=0 basefreq=60
New Transformer.TRF_12_3320A phases=1 windings=3 buses=[MRT_549401TRF_12_3320A.2 ET12_3320.1.4 ET12_3320.4.2] conns=[Wye Wye Wye] kvs=[13.3367912182804 0.22 0.22] kvas=[5 5 5] %loadloss=2.1 %noloadloss=0.7
New Linecode.LC_MRT_TRF_12_3320A_1 nphases=1 basefreq=60 r1=15000 x1=0 units=km normamps=0
New Linecode.LC_MRT_TRF_12_3320A_2 nphases=2 basefreq=60 r1=15000 x1=0 units=km normamps=0
New Linecode.LC_MRT_TRF_12_3320A_3 nphases=3 basefreq=60 r1=15000 x1=0 units=km normamps=0
New Linecode.LC_MRT_TRF_12_3320A_4 nphases=4 basefreq=60 r1=15000 x1=0 units=km normamps=0
New Line.Resist_MTR_TRF_12_3320A phases=1 bus1=549401.2 bus2= MRT_549401TRF_12_3320A.2 linecode=LC_MRT_TRF_12_3320A_1 length=0.001 units=km
New Reactor.TRF_12_3320A_R phases=1 bus1=ET12_3320.4 R=15 X=0 basefreq=60
New Transformer.TRF_12_3322A phases=1 windings=3 buses=[MRT_632412TRF_12_3322A.1 ET12_3322.1.4 ET12_3322.4.2] conns=[Wye Wye Wye] kvs=[13.3367912182804 0.22 0.22] kvas=[5 5 5] %loadloss=2.1 %noloadloss=0.7
New Linecode.LC_MRT_TRF_12_3322A_1 nphases=1 basefreq=60 r1=15000 x1=0 units=km normamps=0
New Linecode.LC_MRT_TRF_12_3322A_2 nphases=2 basefreq=60 r1=15000 x1=0 units=km normamps=0
New Linecode.LC_MRT_TRF_12_3322A_3 nphases=3 basefreq=60 r1=15000 x1=0 units=km normamps=0
New Linecode.LC_MRT_TRF_12_3322A_4 nphases=4 basefreq=60 r1=15000 x1=0 units=km normamps=0
New Line.Resist_MTR_TRF_12_3322A phases=1 bus1=632412.1 bus2= MRT_632412TRF_12_3322A.1 linecode=LC_MRT_TRF_12_3322A_1 length=0.001 units=km
New Reactor.TRF_12_3322A_R phases=1 bus1=ET12_3322.4 R=15 X=0 basefreq=60
New Transformer.TRF_12_3323A phases=1 windings=3 buses=[MRT_42531TRF_12_3323A.1 ET12_3323.1.4 ET12_3323.4.2] conns=[Wye Wye Wye] kvs=[13.3367912182804 0.22 0.22] kvas=[25 25 25] %loadloss=1.56 %noloadloss=0.36
New Linecode.LC_MRT_TRF_12_3323A_1 nphases=1 basefreq=60 r1=15000 x1=0 units=km normamps=0
New Linecode.LC_MRT_TRF_12_3323A_2 nphases=2 basefreq=60 r1=15000 x1=0 units=km normamps=0
New Linecode.LC_MRT_TRF_12_3323A_3 nphases=3 basefreq=60 r1=15000 x1=0 units=km normamps=0
New Linecode.LC_MRT_TRF_12_3323A_4 nphases=4 basefreq=60 r1=15000 x1=0 units=km normamps=0
New Line.Resist_MTR_TRF_12_3323A phases=1 bus1=42531.1 bus2= MRT_42531TRF_12_3323A.1 linecode=LC_MRT_TRF_12_3323A_1 length=0.001 units=km
New Reactor.TRF_12_3323A_R phases=1 bus1=ET12_3323.4 R=15 X=0 basefreq=60
New Transformer.TRF_12_3324A phases=1 windings=3 buses=[MRT_33411TRF_12_3324A.2 ET12_3324.1.4 ET12_3324.4.2] conns=[Wye Wye Wye] kvs=[13.3367912182804 0.22 0.22] kvas=[10 10 10] %loadloss=1.95 %noloadloss=0.5
New Linecode.LC_MRT_TRF_12_3324A_1 nphases=1 basefreq=60 r1=15000 x1=0 units=km normamps=0
New Linecode.LC_MRT_TRF_12_3324A_2 nphases=2 basefreq=60 r1=15000 x1=0 units=km normamps=0
New Linecode.LC_MRT_TRF_12_3324A_3 nphases=3 basefreq=60 r1=15000 x1=0 units=km normamps=0
New Linecode.LC_MRT_TRF_12_3324A_4 nphases=4 basefreq=60 r1=15000 x1=0 units=km normamps=0
New Line.Resist_MTR_TRF_12_3324A phases=1 bus1=33411.2 bus2= MRT_33411TRF_12_3324A.2 linecode=LC_MRT_TRF_12_3324A_1 length=0.001 units=km
New Reactor.TRF_12_3324A_R phases=1 bus1=ET12_3324.4 R=15 X=0 basefreq=60
New Transformer.TRF_12_3339A phases=1 windings=3 buses=[MRT_343391TRF_12_3339A.1 ET12_3339.1.4 ET12_3339.4.2] conns=[Wye Wye Wye] kvs=[13.3367912182804 0.22 0.22] kvas=[10 10 10] %loadloss=1.95 %noloadloss=0.5
New Linecode.LC_MRT_TRF_12_3339A_1 nphases=1 basefreq=60 r1=15000 x1=0 units=km normamps=0
New Linecode.LC_MRT_TRF_12_3339A_2 nphases=2 basefreq=60 r1=15000 x1=0 units=km normamps=0
New Linecode.LC_MRT_TRF_12_3339A_3 nphases=3 basefreq=60 r1=15000 x1=0 units=km normamps=0
New Linecode.LC_MRT_TRF_12_3339A_4 nphases=4 basefreq=60 r1=15000 x1=0 units=km normamps=0
New Line.Resist_MTR_TRF_12_3339A phases=1 bus1=343391.1 bus2= MRT_343391TRF_12_3339A.1 linecode=LC_MRT_TRF_12_3339A_1 length=0.001 units=km
New Reactor.TRF_12_3339A_R phases=1 bus1=ET12_3339.4 R=15 X=0 basefreq=60
New Transformer.TRF_12_3340A phases=3 windings=2 buses=[56621.1.2.3 ET12_3340.1.2.3.4] conns=[Delta Wye] kvs=[23.1 0.38] kvas=[15 15] %loadloss=2.5 %noloadloss=0.633333
New Reactor.TRF_12_3340A_R phases=1 bus1=ET12_3340.4 R=15 X=0 basefreq=60
New Transformer.TRF_12_3341A phases=1 windings=3 buses=[MRT_51301TRF_12_3341A.3 ET12_3341.1.4 ET12_3341.4.2] conns=[Wye Wye Wye] kvs=[13.3367912182804 0.22 0.22] kvas=[10 10 10] %loadloss=1.95 %noloadloss=0.5
New Linecode.LC_MRT_TRF_12_3341A_1 nphases=1 basefreq=60 r1=15000 x1=0 units=km normamps=0
New Linecode.LC_MRT_TRF_12_3341A_2 nphases=2 basefreq=60 r1=15000 x1=0 units=km normamps=0
New Linecode.LC_MRT_TRF_12_3341A_3 nphases=3 basefreq=60 r1=15000 x1=0 units=km normamps=0
New Linecode.LC_MRT_TRF_12_3341A_4 nphases=4 basefreq=60 r1=15000 x1=0 units=km normamps=0
New Line.Resist_MTR_TRF_12_3341A phases=1 bus1=51301.3 bus2= MRT_51301TRF_12_3341A.3 linecode=LC_MRT_TRF_12_3341A_1 length=0.001 units=km
New Reactor.TRF_12_3341A_R phases=1 bus1=ET12_3341.4 R=15 X=0 basefreq=60
New Transformer.TRF_12_3345A phases=3 windings=2 buses=[45011.1.2.3 ET12_3345.1.2.3.4] conns=[Delta Wye] kvs=[23.1 0.38] kvas=[45 45] %loadloss=1.866667 %noloadloss=0.477777
New Reactor.TRF_12_3345A_R phases=1 bus1=ET12_3345.4 R=15 X=0 basefreq=60
New Transformer.TRF_12_3403A phases=1 windings=3 buses=[MRT_360921TRF_12_3403A.3 ET12_3403.1.4 ET12_3403.4.2] conns=[Wye Wye Wye] kvs=[13.3367912182804 0.22 0.22] kvas=[10 10 10] %loadloss=1.95 %noloadloss=0.5
New Linecode.LC_MRT_TRF_12_3403A_1 nphases=1 basefreq=60 r1=15000 x1=0 units=km normamps=0
New Linecode.LC_MRT_TRF_12_3403A_2 nphases=2 basefreq=60 r1=15000 x1=0 units=km normamps=0
New Linecode.LC_MRT_TRF_12_3403A_3 nphases=3 basefreq=60 r1=15000 x1=0 units=km normamps=0
New Linecode.LC_MRT_TRF_12_3403A_4 nphases=4 basefreq=60 r1=15000 x1=0 units=km normamps=0
New Line.Resist_MTR_TRF_12_3403A phases=1 bus1=360921.3 bus2= MRT_360921TRF_12_3403A.3 linecode=LC_MRT_TRF_12_3403A_1 length=0.001 units=km
New Reactor.TRF_12_3403A_R phases=1 bus1=ET12_3403.4 R=15 X=0 basefreq=60
New Transformer.TRF_12_3444A phases=1 windings=3 buses=[MRT_54321TRF_12_3444A.2 ET12_3444.1.4 ET12_3444.4.2] conns=[Wye Wye Wye] kvs=[13.3367912182804 0.22 0.22] kvas=[10 10 10] %loadloss=1.95 %noloadloss=0.5
New Linecode.LC_MRT_TRF_12_3444A_1 nphases=1 basefreq=60 r1=15000 x1=0 units=km normamps=0
New Linecode.LC_MRT_TRF_12_3444A_2 nphases=2 basefreq=60 r1=15000 x1=0 units=km normamps=0
New Linecode.LC_MRT_TRF_12_3444A_3 nphases=3 basefreq=60 r1=15000 x1=0 units=km normamps=0
New Linecode.LC_MRT_TRF_12_3444A_4 nphases=4 basefreq=60 r1=15000 x1=0 units=km normamps=0
New Line.Resist_MTR_TRF_12_3444A phases=1 bus1=54321.2 bus2= MRT_54321TRF_12_3444A.2 linecode=LC_MRT_TRF_12_3444A_1 length=0.001 units=km
New Reactor.TRF_12_3444A_R phases=1 bus1=ET12_3444.4 R=15 X=0 basefreq=60
New Transformer.TRF_12_3450A phases=1 windings=3 buses=[MRT_49221TRF_12_3450A.2 ET12_3450.1.4 ET12_3450.4.2] conns=[Wye Wye Wye] kvs=[13.3367912182804 0.22 0.22] kvas=[15 15 15] %loadloss=1.766667 %noloadloss=0.433333
New Linecode.LC_MRT_TRF_12_3450A_1 nphases=1 basefreq=60 r1=15000 x1=0 units=km normamps=0
New Linecode.LC_MRT_TRF_12_3450A_2 nphases=2 basefreq=60 r1=15000 x1=0 units=km normamps=0
New Linecode.LC_MRT_TRF_12_3450A_3 nphases=3 basefreq=60 r1=15000 x1=0 units=km normamps=0
New Linecode.LC_MRT_TRF_12_3450A_4 nphases=4 basefreq=60 r1=15000 x1=0 units=km normamps=0
New Line.Resist_MTR_TRF_12_3450A phases=1 bus1=49221.2 bus2= MRT_49221TRF_12_3450A.2 linecode=LC_MRT_TRF_12_3450A_1 length=0.001 units=km
New Reactor.TRF_12_3450A_R phases=1 bus1=ET12_3450.4 R=15 X=0 basefreq=60
New Transformer.TRF_12_3546A phases=1 windings=3 buses=[22181.3.1 ET12_3546.1.4 ET12_3546.4.2] conns=[Delta Wye Wye] kvs=[23.1 0.22 0.22] kvas=[10 10 10] %loadloss=1.15 %noloadloss=0.4
New Reactor.TRF_12_3546A_R phases=1 bus1=ET12_3546.4 R=15 X=0 basefreq=60
New Transformer.TRF_12_3586A phases=1 windings=3 buses=[MRT_3921TRF_12_3586A.3 ET12_3586.1.4 ET12_3586.4.2] conns=[Wye Wye Wye] kvs=[13.3367912182804 0.22 0.22] kvas=[15 15 15] %loadloss=1.766667 %noloadloss=0.433333
New Linecode.LC_MRT_TRF_12_3586A_1 nphases=1 basefreq=60 r1=15000 x1=0 units=km normamps=0
New Linecode.LC_MRT_TRF_12_3586A_2 nphases=2 basefreq=60 r1=15000 x1=0 units=km normamps=0
New Linecode.LC_MRT_TRF_12_3586A_3 nphases=3 basefreq=60 r1=15000 x1=0 units=km normamps=0
New Linecode.LC_MRT_TRF_12_3586A_4 nphases=4 basefreq=60 r1=15000 x1=0 units=km normamps=0
New Line.Resist_MTR_TRF_12_3586A phases=1 bus1=3921.3 bus2= MRT_3921TRF_12_3586A.3 linecode=LC_MRT_TRF_12_3586A_1 length=0.001 units=km
New Reactor.TRF_12_3586A_R phases=1 bus1=ET12_3586.4 R=15 X=0 basefreq=60
New Transformer.TRF_12_3610A phases=1 windings=2 buses=[MRT_583711TRF_12_3610A.1 ET12_3610.1.4] conns=[Wye Wye] kvs=[13.3367912182804 0.22] kvas=[5 5] %loadloss=2.1 %noloadloss=0.7
New Linecode.LC_MRT_TRF_12_3610A_1 nphases=1 basefreq=60 r1=15000 x1=0 units=km normamps=0
New Linecode.LC_MRT_TRF_12_3610A_2 nphases=2 basefreq=60 r1=15000 x1=0 units=km normamps=0
New Linecode.LC_MRT_TRF_12_3610A_3 nphases=3 basefreq=60 r1=15000 x1=0 units=km normamps=0
New Linecode.LC_MRT_TRF_12_3610A_4 nphases=4 basefreq=60 r1=15000 x1=0 units=km normamps=0
New Line.Resist_MTR_TRF_12_3610A phases=1 bus1=583711.1 bus2= MRT_583711TRF_12_3610A.1 linecode=LC_MRT_TRF_12_3610A_1 length=0.001 units=km
New Reactor.TRF_12_3610A_R phases=1 bus1=ET12_3610.4 R=15 X=0 basefreq=60
New Transformer.TRF_12_3611A phases=1 windings=3 buses=[MRT_583501TRF_12_3611A.3 ET12_3611.1.4 ET12_3611.4.2] conns=[Wye Wye Wye] kvs=[13.3367912182804 0.22 0.22] kvas=[10 10 10] %loadloss=1.95 %noloadloss=0.5
New Linecode.LC_MRT_TRF_12_3611A_1 nphases=1 basefreq=60 r1=15000 x1=0 units=km normamps=0
New Linecode.LC_MRT_TRF_12_3611A_2 nphases=2 basefreq=60 r1=15000 x1=0 units=km normamps=0
New Linecode.LC_MRT_TRF_12_3611A_3 nphases=3 basefreq=60 r1=15000 x1=0 units=km normamps=0
New Linecode.LC_MRT_TRF_12_3611A_4 nphases=4 basefreq=60 r1=15000 x1=0 units=km normamps=0
New Line.Resist_MTR_TRF_12_3611A phases=1 bus1=583501.3 bus2= MRT_583501TRF_12_3611A.3 linecode=LC_MRT_TRF_12_3611A_1 length=0.001 units=km
New Reactor.TRF_12_3611A_R phases=1 bus1=ET12_3611.4 R=15 X=0 basefreq=60
...